# generated using pymatgen
data_CsPr(CO3)2
_symmetry_space_group_name_H-M   'P 1'
_cell_length_a   8.71498575
_cell_length_b   9.04298720
_cell_length_c   9.03950506
_cell_angle_alpha   98.93797373
_cell_angle_beta   96.31818919
_cell_angle_gamma   114.64703351
_symmetry_Int_Tables_number   1
_chemical_formula_structural   CsPr(CO3)2
_chemical_formula_sum   'Cs4 Pr4 C8 O24'
_cell_volume   627.38791890
_cell_formula_units_Z   4
loop_
 _symmetry_equiv_pos_site_id
 _symmetry_equiv_pos_as_xyz
  1  'x, y, z'
loop_
 _atom_site_type_symbol
 _atom_site_label
 _atom_site_symmetry_multiplicity
 _atom_site_fract_x
 _atom_site_fract_y
 _atom_site_fract_z
 _atom_site_occupancy
  C  C0  1  0.970108  0.704642  0.710456  1
  C  C1  1  0.029892  0.295358  0.289544  1
  C  C2  1  0.541348  0.141553  0.741664  1
  C  C3  1  0.997127  0.274224  0.787759  1
  C  C4  1  0.002873  0.725776  0.212241  1
  C  C5  1  0.458652  0.858447  0.258336  1
  C  C6  1  0.581800  0.395583  0.231758  1
  C  C7  1  0.418200  0.604417  0.768242  1
  O  O8  1  0.934589  0.575054  0.599925  1
  O  O9  1  0.496591  0.563518  0.874009  1
  O  O10  1  0.722777  0.383385  0.208833  1
  O  O11  1  0.277223  0.616615  0.791167  1
  O  O12  1  0.471081  0.634146  0.643618  1
  O  O13  1  0.528919  0.365854  0.356382  1
  O  O14  1  0.065411  0.424946  0.400075  1
  O  O15  1  0.503409  0.436482  0.125991  1
  O  O16  1  0.043410  0.628169  0.117583  1
  O  O17  1  0.956590  0.371831  0.882417  1
  O  O18  1  0.134641  0.259386  0.835968  1
  O  O19  1  0.865359  0.740614  0.164032  1
  O  O20  1  0.094627  0.802819  0.347271  1
  O  O21  1  0.905373  0.197181  0.652729  1
  O  O22  1  0.901427  0.156835  0.294757  1
  O  O23  1  0.118761  0.304527  0.184675  1
  O  O24  1  0.603456  0.272144  0.679339  1
  O  O25  1  0.396544  0.727856  0.320661  1
  O  O26  1  0.562423  0.171618  0.889263  1
  O  O27  1  0.437577  0.828382  0.110737  1
  O  O28  1  0.538261  0.007094  0.341054  1
  O  O29  1  0.461739  0.992906  0.658946  1
  O  O30  1  0.881239  0.695473  0.815325  1
  O  O31  1  0.098573  0.843165  0.705243  1
  Cs  Cs32  1  0.245286  0.031394  0.029760  1
  Cs  Cs33  1  0.754714  0.968606  0.970240  1
  Cs  Cs34  1  0.240693  0.190072  0.526962  1
  Cs  Cs35  1  0.759307  0.809928  0.473038  1
  Pr  Pr36  1  0.260215  0.522045  0.047826  1
  Pr  Pr37  1  0.739785  0.477955  0.952174  1
  Pr  Pr38  1  0.241328  0.714549  0.540753  1
  Pr  Pr39  1  0.758672  0.285451  0.459247  1
