# generated using pymatgen
data_Li3Tb(NO3)6
_symmetry_space_group_name_H-M   'P 1'
_cell_length_a   7.67367223
_cell_length_b   7.93873914
_cell_length_c   24.38351536
_cell_angle_alpha   91.39922951
_cell_angle_beta   90.00000000
_cell_angle_gamma   90.00000000
_symmetry_Int_Tables_number   1
_chemical_formula_structural   Li3Tb(NO3)6
_chemical_formula_sum   'Li12 Tb4 N24 O72'
_cell_volume   1484.98332319
_cell_formula_units_Z   4
loop_
 _symmetry_equiv_pos_site_id
 _symmetry_equiv_pos_as_xyz
  1  'x, y, z'
loop_
 _atom_site_type_symbol
 _atom_site_label
 _atom_site_symmetry_multiplicity
 _atom_site_fract_x
 _atom_site_fract_y
 _atom_site_fract_z
 _atom_site_occupancy
  Li  Li0  1  0.816290  0.707618  0.634407  1
  Li  Li1  1  0.183710  0.292382  0.365593  1
  Li  Li2  1  0.316290  0.792382  0.865593  1
  Li  Li3  1  0.683710  0.207618  0.134407  1
  Li  Li4  1  0.557854  0.998707  0.745159  1
  Li  Li5  1  0.442146  0.001293  0.254841  1
  Li  Li6  1  0.057854  0.501293  0.754841  1
  Li  Li7  1  0.942146  0.498707  0.245159  1
  Li  Li8  1  0.289766  0.742009  0.525692  1
  Li  Li9  1  0.710234  0.257991  0.474308  1
  Li  Li10  1  0.789766  0.757991  0.974308  1
  Li  Li11  1  0.210234  0.242009  0.025692  1
  Tb  Tb12  1  0.305794  0.242638  0.609674  1
  Tb  Tb13  1  0.694206  0.757362  0.390326  1
  Tb  Tb14  1  0.805794  0.257362  0.890326  1
  Tb  Tb15  1  0.194206  0.742638  0.109674  1
  N  N16  1  0.798387  0.735231  0.735240  1
  N  N17  1  0.201613  0.264769  0.264760  1
  N  N18  1  0.298387  0.764769  0.764760  1
  N  N19  1  0.701613  0.235231  0.235240  1
  N  N20  1  0.302214  0.260902  0.730257  1
  N  N21  1  0.697786  0.739097  0.269743  1
  N  N22  1  0.802214  0.239097  0.769743  1
  N  N23  1  0.197786  0.760903  0.230257  1
  N  N24  1  0.492149  0.145460  0.946060  1
  N  N25  1  0.507851  0.854540  0.053940  1
  N  N26  1  0.992149  0.354540  0.553940  1
  N  N27  1  0.007851  0.645460  0.446060  1
  N  N28  1  0.128614  0.400337  0.936171  1
  N  N29  1  0.871386  0.599663  0.063829  1
  N  N30  1  0.628614  0.099663  0.563829  1
  N  N31  1  0.371386  0.900337  0.436171  1
  N  N32  1  0.114345  0.924019  0.606389  1
  N  N33  1  0.885655  0.075981  0.393611  1
  N  N34  1  0.614345  0.575981  0.893611  1
  N  N35  1  0.385655  0.424019  0.106389  1
  N  N36  1  0.007452  0.944750  0.902797  1
  N  N37  1  0.992548  0.055250  0.097203  1
  N  N38  1  0.507452  0.555250  0.597203  1
  N  N39  1  0.492548  0.444750  0.402797  1
  O  O40  1  0.397129  0.155107  0.702406  1
  O  O41  1  0.602871  0.844893  0.297594  1
  O  O42  1  0.897129  0.344893  0.797594  1
  O  O43  1  0.102871  0.655107  0.202406  1
  O  O44  1  0.523982  0.091512  0.897383  1
  O  O45  1  0.476018  0.908488  0.102617  1
  O  O46  1  0.023982  0.408488  0.602617  1
  O  O47  1  0.976018  0.591512  0.397383  1
  O  O48  1  0.604596  0.245325  0.968124  1
  O  O49  1  0.395404  0.754675  0.031876  1
  O  O50  1  0.104596  0.254675  0.531876  1
  O  O51  1  0.895404  0.745325  0.468124  1
  O  O52  1  0.300245  0.268564  0.780455  1
  O  O53  1  0.699755  0.731436  0.219545  1
  O  O54  1  0.800245  0.231436  0.719545  1
  O  O55  1  0.199755  0.768564  0.280455  1
  O  O56  1  0.263249  0.456260  0.957284  1
  O  O57  1  0.736751  0.543740  0.042716  1
  O  O58  1  0.763249  0.043740  0.542716  1
  O  O59  1  0.236751  0.956260  0.457284  1
  O  O60  1  0.048414  0.054675  0.867944  1
  O  O61  1  0.951586  0.945325  0.132056  1
  O  O62  1  0.548414  0.445325  0.632056  1
  O  O63  1  0.451586  0.554675  0.367944  1
  O  O64  1  0.357648  0.102714  0.970862  1
  O  O65  1  0.642352  0.897286  0.029138  1
  O  O66  1  0.857648  0.397286  0.529138  1
  O  O67  1  0.142352  0.602714  0.470862  1
  O  O68  1  0.295974  0.754410  0.713933  1
  O  O69  1  0.704026  0.245590  0.286067  1
  O  O70  1  0.795974  0.745590  0.786067  1
  O  O71  1  0.204026  0.254410  0.213933  1
  O  O72  1  0.635919  0.469741  0.429483  1
  O  O73  1  0.364081  0.530259  0.570517  1
  O  O74  1  0.135919  0.030259  0.070517  1
  O  O75  1  0.864081  0.969741  0.929483  1
  O  O76  1  0.032773  0.790292  0.599461  1
  O  O77  1  0.967227  0.209708  0.400539  1
  O  O78  1  0.532773  0.709708  0.900539  1
  O  O79  1  0.467227  0.290292  0.099461  1
  O  O80  1  0.024435  0.304427  0.964661  1
  O  O81  1  0.975565  0.695573  0.035339  1
  O  O82  1  0.524435  0.195573  0.535339  1
  O  O83  1  0.475565  0.804427  0.464661  1
  O  O84  1  0.081663  0.427329  0.887431  1
  O  O85  1  0.918337  0.572671  0.112569  1
  O  O86  1  0.581663  0.072671  0.612569  1
  O  O87  1  0.418337  0.927329  0.387431  1
  O  O88  1  0.208467  0.359154  0.700585  1
  O  O89  1  0.791533  0.640846  0.299415  1
  O  O90  1  0.708467  0.140846  0.799415  1
  O  O91  1  0.291533  0.859154  0.200585  1
  O  O92  1  0.598967  0.680343  0.588271  1
  O  O93  1  0.401033  0.319657  0.411729  1
  O  O94  1  0.098967  0.819657  0.911729  1
  O  O95  1  0.901033  0.180343  0.088271  1
  O  O96  1  0.064141  0.044978  0.637277  1
  O  O97  1  0.935859  0.955022  0.362723  1
  O  O98  1  0.564141  0.455022  0.862723  1
  O  O99  1  0.435859  0.544978  0.137277  1
  O  O100  1  0.259666  0.944686  0.580542  1
  O  O101  1  0.740334  0.055314  0.419458  1
  O  O102  1  0.759666  0.555314  0.919458  1
  O  O103  1  0.240334  0.444686  0.080542  1
  O  O104  1  0.391475  0.875021  0.790779  1
  O  O105  1  0.608525  0.124979  0.209221  1
  O  O106  1  0.891475  0.624979  0.709221  1
  O  O107  1  0.108525  0.375021  0.290779  1
  O  O108  1  0.709011  0.833384  0.705194  1
  O  O109  1  0.290989  0.166616  0.294806  1
  O  O110  1  0.209011  0.666616  0.794806  1
  O  O111  1  0.790989  0.333384  0.205194  1
