# generated using pymatgen
data_Ho11(In3Ge2)2
_symmetry_space_group_name_H-M   'P 1'
_cell_length_a   11.47535993
_cell_length_b   11.47535993
_cell_length_c   11.47535993
_cell_angle_alpha   90.05142536
_cell_angle_beta   119.97031400
_cell_angle_gamma   119.97031400
_symmetry_Int_Tables_number   1
_chemical_formula_structural   Ho11(In3Ge2)2
_chemical_formula_sum   'Ho22 In12 Ge8'
_cell_volume   1069.00217069
_cell_formula_units_Z   2
loop_
 _symmetry_equiv_pos_site_id
 _symmetry_equiv_pos_as_xyz
  1  'x, y, z'
loop_
 _atom_site_type_symbol
 _atom_site_label
 _atom_site_symmetry_multiplicity
 _atom_site_fract_x
 _atom_site_fract_y
 _atom_site_fract_z
 _atom_site_occupancy
  Ho  Ho0  1  0.749900  0.064648  0.314748  1
  Ho  Ho1  1  0.250100  0.564848  0.314748  1
  Ho  Ho2  1  0.749900  0.314748  0.064648  1
  Ho  Ho3  1  0.250100  0.314748  0.564848  1
  Ho  Ho4  1  0.250100  0.935352  0.685252  1
  Ho  Ho5  1  0.749900  0.435152  0.685252  1
  Ho  Ho6  1  0.250100  0.685252  0.935352  1
  Ho  Ho7  1  0.749900  0.685252  0.435152  1
  Ho  Ho8  1  0.655022  0.756615  0.101594  1
  Ho  Ho9  1  0.344978  0.446572  0.101594  1
  Ho  Ho10  1  0.655022  0.101594  0.756615  1
  Ho  Ho11  1  0.344978  0.101594  0.446572  1
  Ho  Ho12  1  0.344978  0.243385  0.898406  1
  Ho  Ho13  1  0.655022  0.553428  0.898406  1
  Ho  Ho14  1  0.344978  0.898406  0.243385  1
  Ho  Ho15  1  0.655022  0.898406  0.553428  1
  Ho  Ho16  1  0.340018  0.670009  0.670009  1
  Ho  Ho17  1  0.659982  0.329991  0.329991  1
  Ho  Ho18  1  -0.000000  0.329991  0.670009  1
  Ho  Ho19  1  0.000000  0.670009  0.329991  1
  Ho  Ho20  1  -0.000000  0.167932  0.167932  1
  Ho  Ho21  1  -0.000000  0.832068  0.832068  1
  In  In22  1  0.589217  0.966226  0.966226  1
  In  In23  1  0.410783  0.377009  0.377009  1
  In  In24  1  -0.000000  0.377009  0.966226  1
  In  In25  1  -0.000000  0.966226  0.377009  1
  In  In26  1  0.410783  0.033774  0.033774  1
  In  In27  1  0.589217  0.622991  0.622991  1
  In  In28  1  0.000000  0.622991  0.033774  1
  In  In29  1  0.000000  0.033774  0.622991  1
  In  In30  1  0.742473  0.871236  0.871236  1
  In  In31  1  0.257527  0.128764  0.128764  1
  In  In32  1  -0.000000  0.128764  0.871236  1
  In  In33  1  0.000000  0.871236  0.128764  1
  Ge  Ge34  1  0.347597  0.500000  0.847597  1
  Ge  Ge35  1  0.652403  0.500000  0.152403  1
  Ge  Ge36  1  0.652403  0.152403  0.500000  1
  Ge  Ge37  1  0.347597  0.847597  0.500000  1
  Ge  Ge38  1  -0.000000  0.384751  0.384751  1
  Ge  Ge39  1  0.000000  0.615249  0.615249  1
  Ge  Ge40  1  0.500000  0.750000  0.250000  1
  Ge  Ge41  1  0.500000  0.250000  0.750000  1
