# generated using pymatgen
data_Tl2GeF6
_symmetry_space_group_name_H-M   'P 1'
_cell_length_a   5.01788763
_cell_length_b   5.96382002
_cell_length_c   5.96382002
_cell_angle_alpha   120.00000826
_cell_angle_beta   90.00000000
_cell_angle_gamma   90.00000000
_symmetry_Int_Tables_number   1
_chemical_formula_structural   Tl2GeF6
_chemical_formula_sum   'Tl2 Ge1 F6'
_cell_volume   154.56123701
_cell_formula_units_Z   1
loop_
 _symmetry_equiv_pos_site_id
 _symmetry_equiv_pos_as_xyz
  1  'x, y, z'
loop_
 _atom_site_type_symbol
 _atom_site_label
 _atom_site_symmetry_multiplicity
 _atom_site_fract_x
 _atom_site_fract_y
 _atom_site_fract_z
 _atom_site_occupancy
  Tl  Tl0  1  0.682816  0.666667  0.333333  1
  Tl  Tl1  1  0.317184  0.333333  0.666667  1
  Ge  Ge2  1  0.000000  -0.000000  -0.000000  1
  F  F3  1  0.792818  0.147497  0.294994  1
  F  F4  1  0.207182  0.852503  0.705006  1
  F  F5  1  0.792818  0.147497  0.852503  1
  F  F6  1  0.207182  0.852503  0.147497  1
  F  F7  1  0.792818  0.705006  0.852503  1
  F  F8  1  0.207182  0.294994  0.147497  1
