# generated using pymatgen
data_K2Si(S2O7)3
_symmetry_space_group_name_H-M   'P 1'
_cell_length_a   11.21670811
_cell_length_b   9.58239250
_cell_length_c   16.72992187
_cell_angle_alpha   90.00000000
_cell_angle_beta   92.36808605
_cell_angle_gamma   90.00000000
_symmetry_Int_Tables_number   1
_chemical_formula_structural   K2Si(S2O7)3
_chemical_formula_sum   'K8 Si4 S24 O84'
_cell_volume   1796.64486789
_cell_formula_units_Z   4
loop_
 _symmetry_equiv_pos_site_id
 _symmetry_equiv_pos_as_xyz
  1  'x, y, z'
loop_
 _atom_site_type_symbol
 _atom_site_label
 _atom_site_symmetry_multiplicity
 _atom_site_fract_x
 _atom_site_fract_y
 _atom_site_fract_z
 _atom_site_occupancy
  K  K0  1  0.563174  0.508869  0.361326  1
  K  K1  1  0.063174  0.991131  0.861326  1
  K  K2  1  0.436826  0.491131  0.638674  1
  K  K3  1  0.936826  0.008869  0.138674  1
  K  K4  1  0.094386  0.497456  0.314818  1
  K  K5  1  0.594386  0.002544  0.814818  1
  K  K6  1  0.905614  0.502544  0.685182  1
  K  K7  1  0.405614  0.997456  0.185182  1
  Si  Si8  1  0.733072  0.498742  0.002845  1
  Si  Si9  1  0.233072  0.001258  0.502845  1
  Si  Si10  1  0.266928  0.501258  0.997155  1
  Si  Si11  1  0.766928  0.998742  0.497155  1
  S  S12  1  0.852085  0.757567  0.396277  1
  S  S13  1  0.352085  0.742433  0.896277  1
  S  S14  1  0.147915  0.242433  0.603723  1
  S  S15  1  0.647915  0.257567  0.103723  1
  S  S16  1  0.327804  0.216632  0.381361  1
  S  S17  1  0.827804  0.283368  0.881361  1
  S  S18  1  0.672196  0.783368  0.618639  1
  S  S19  1  0.172196  0.716632  0.118639  1
  S  S20  1  0.841012  0.421562  0.171071  1
  S  S21  1  0.341012  0.078438  0.671071  1
  S  S22  1  0.158988  0.578438  0.828929  1
  S  S23  1  0.658988  0.921562  0.328929  1
  S  S24  1  0.327909  0.713783  0.447093  1
  S  S25  1  0.827909  0.786217  0.947093  1
  S  S26  1  0.672091  0.286217  0.552907  1
  S  S27  1  0.172091  0.213783  0.052907  1
  S  S28  1  0.363949  0.534030  0.169307  1
  S  S29  1  0.863949  0.965970  0.669307  1
  S  S30  1  0.636051  0.465970  0.830693  1
  S  S31  1  0.136051  0.034030  0.330693  1
  S  S32  1  0.842703  0.277619  0.429906  1
  S  S33  1  0.342703  0.222381  0.929906  1
  S  S34  1  0.157297  0.722381  0.570094  1
  S  S35  1  0.657297  0.777619  0.070094  1
  O  O36  1  0.281980  0.452805  0.213511  1
  O  O37  1  0.781980  0.047195  0.713511  1
  O  O38  1  0.718020  0.547195  0.786489  1
  O  O39  1  0.218020  0.952805  0.286489  1
  O  O40  1  0.329348  0.868951  0.465364  1
  O  O41  1  0.829348  0.631049  0.965364  1
  O  O42  1  0.670652  0.131049  0.534636  1
  O  O43  1  0.170652  0.368951  0.034636  1
  O  O44  1  0.367831  0.487485  0.082695  1
  O  O45  1  0.867831  0.012515  0.582695  1
  O  O46  1  0.632169  0.512515  0.917305  1
  O  O47  1  0.132169  0.987485  0.417305  1
  O  O48  1  0.968030  0.723757  0.369840  1
  O  O49  1  0.468030  0.776243  0.869840  1
  O  O50  1  0.031970  0.276243  0.630160  1
  O  O51  1  0.531970  0.223757  0.130160  1
  O  O52  1  0.326321  0.126725  0.455890  1
  O  O53  1  0.826321  0.373275  0.955890  1
  O  O54  1  0.673679  0.873275  0.544110  1
  O  O55  1  0.173679  0.626725  0.044110  1
  O  O56  1  0.201154  0.659243  0.483412  1
  O  O57  1  0.701154  0.840757  0.983412  1
  O  O58  1  0.798846  0.340757  0.516588  1
  O  O59  1  0.298846  0.159244  0.016588  1
  O  O60  1  0.482225  0.557787  0.201455  1
  O  O61  1  0.982225  0.942213  0.701455  1
  O  O62  1  0.517775  0.442213  0.798545  1
  O  O63  1  0.017775  0.057787  0.298545  1
  O  O64  1  0.833203  0.487265  0.088144  1
  O  O65  1  0.333203  0.012735  0.588144  1
  O  O66  1  0.166797  0.512735  0.911856  1
  O  O67  1  0.666797  0.987265  0.411856  1
  O  O68  1  0.310636  0.684190  0.363509  1
  O  O69  1  0.810636  0.815810  0.863509  1
  O  O70  1  0.689364  0.315810  0.636491  1
  O  O71  1  0.189364  0.184190  0.136491  1
  O  O72  1  0.859162  0.123460  0.449578  1
  O  O73  1  0.359162  0.376540  0.949578  1
  O  O74  1  0.140838  0.876540  0.550422  1
  O  O75  1  0.640838  0.623460  0.050422  1
  O  O76  1  0.707755  0.348871  0.178937  1
  O  O77  1  0.207755  0.151129  0.678937  1
  O  O78  1  0.292245  0.651129  0.821063  1
  O  O79  1  0.792245  0.848871  0.321063  1
  O  O80  1  0.770414  0.648794  0.415694  1
  O  O81  1  0.270414  0.851206  0.915694  1
  O  O82  1  0.229586  0.351206  0.584306  1
  O  O83  1  0.729586  0.148794  0.084306  1
  O  O84  1  0.327351  0.362419  0.400490  1
  O  O85  1  0.827351  0.137581  0.900490  1
  O  O86  1  0.672649  0.637581  0.599510  1
  O  O87  1  0.172649  0.862419  0.099510  1
  O  O88  1  0.956760  0.341310  0.421837  1
  O  O89  1  0.456760  0.158690  0.921837  1
  O  O90  1  0.043240  0.658690  0.578163  1
  O  O91  1  0.543240  0.841310  0.078163  1
  O  O92  1  0.843301  0.524588  0.232918  1
  O  O93  1  0.343301  0.975412  0.732918  1
  O  O94  1  0.156699  0.475412  0.767082  1
  O  O95  1  0.656699  0.024588  0.267082  1
  O  O96  1  0.413504  0.165673  0.327158  1
  O  O97  1  0.913504  0.334327  0.827158  1
  O  O98  1  0.586496  0.834327  0.672842  1
  O  O99  1  0.086496  0.665673  0.172842  1
  O  O100  1  0.191737  0.194324  0.340058  1
  O  O101  1  0.691737  0.305676  0.840058  1
  O  O102  1  0.808263  0.805676  0.659942  1
  O  O103  1  0.308263  0.694324  0.159942  1
  O  O104  1  0.863773  0.866836  0.462424  1
  O  O105  1  0.363773  0.633164  0.962424  1
  O  O106  1  0.136227  0.133164  0.537576  1
  O  O107  1  0.636227  0.366836  0.037576  1
  O  O108  1  0.425479  0.647016  0.490499  1
  O  O109  1  0.925479  0.852984  0.990499  1
  O  O110  1  0.574521  0.352984  0.509501  1
  O  O111  1  0.074521  0.147016  0.009501  1
  O  O112  1  0.747886  0.301268  0.371417  1
  O  O113  1  0.247886  0.198732  0.871417  1
  O  O114  1  0.252114  0.698732  0.628583  1
  O  O115  1  0.752114  0.801268  0.128583  1
  O  O116  1  0.929718  0.313257  0.174330  1
  O  O117  1  0.429718  0.186743  0.674330  1
  O  O118  1  0.070282  0.686743  0.825670  1
  O  O119  1  0.570282  0.813257  0.325670  1
