# generated using pymatgen
data_YbCu2
_symmetry_space_group_name_H-M   'P 1'
_cell_length_a   4.23525192
_cell_length_b   5.40212640
_cell_length_c   5.40212718
_cell_angle_alpha   77.81667369
_cell_angle_beta   66.92108894
_cell_angle_gamma   66.92109394
_symmetry_Int_Tables_number   1
_chemical_formula_structural   YbCu2
_chemical_formula_sum   'Yb2 Cu4'
_cell_volume   104.36427683
_cell_formula_units_Z   2
loop_
 _symmetry_equiv_pos_site_id
 _symmetry_equiv_pos_as_xyz
  1  'x, y, z'
loop_
 _atom_site_type_symbol
 _atom_site_label
 _atom_site_symmetry_multiplicity
 _atom_site_fract_x
 _atom_site_fract_y
 _atom_site_fract_z
 _atom_site_occupancy
  Yb  Yb0  1  0.543123  0.706877  0.206877  1
  Yb  Yb1  1  0.456877  0.293123  0.793123  1
  Cu  Cu2  1  0.162798  0.892547  0.781857  1
  Cu  Cu3  1  0.837202  0.107453  0.218143  1
  Cu  Cu4  1  0.837202  0.718143  0.607453  1
  Cu  Cu5  1  0.162798  0.281857  0.392547  1
